data_str_m11_o58_o28_jea
_audit_creation_date              2014-11-05T19:33:19-0500
_audit_creation_method            'faps 1.5.0.0'
_symmetry_space_group_name_H-M    P1
_symmetry_Int_Tables_number       1
_space_group_crystal_system       triclinic
loop_
_symmetry_equiv_pos_as_xyz
  x,y,z
_cell_length_a                    16.3578759
_cell_length_b                    33.1641356
_cell_length_c                    27.7082839
_cell_angle_alpha                 64.7255616
_cell_angle_beta                  91.5588976
_cell_angle_gamma                 103.642341
_cell_volume                      13162.9002983

loop_
_atom_site_label
_atom_site_type_symbol
_atom_site_description
_atom_site_fract_x
_atom_site_fract_y
_atom_site_fract_z
_atom_type_partial_charge
O1    O     O_R   0.135864 0.986017 0.519904 0.000000
O2    O     O_R   0.099279 0.046519 0.516813 0.000000
C1    C     C_R   0.156333 0.023545 0.526030 0.000000
O3    O     O_R   0.993851 0.923676 0.569005 0.000000
O4    O     O_R   0.926993 0.927450 0.498216 0.000000
C2    C     C_R   0.945920 0.901986 0.545309 0.000000
O5    O     O_R   0.005652 0.051754 0.416595 0.000000
O6    O     O_R   0.048605 0.991910 0.423429 0.000000
C3    C     C_R   0.034584 0.031347 0.392618 0.000000
O7    O     O_R   0.877768 0.011527 0.490863 0.000000
O8    O     O_R   0.946734 0.009427 0.560490 0.000000
C4    C     C_R   0.880855 0.016849 0.534573 0.000000
In1   In    In3+3 0.004212 0.993511 0.499154 0.000000
C5    C     C_R   0.473967 0.070667 0.603378 0.000000
C6    C     C_R   0.558206 0.095800 0.659509 0.000000
C7    C     C_R   0.615392 0.067996 0.606967 0.000000
N1    N     N_R   0.483043 0.088431 0.639309 0.000000
N2    N     N_R   0.624344 0.085355 0.643356 0.000000
N3    N     N_R   0.540165 0.060609 0.587604 0.000000
C8    C     C_R   0.327981 0.079774 0.585790 0.000000
C9    C     C_R   0.251652 0.069119 0.565771 0.000000
C10   C     C_R   0.238519 0.037918 0.543826 0.000000
C11   C     C_R   0.302598 0.018327 0.540908 0.000000
C12   C     C_R   0.379282 0.029838 0.559448 0.000000
C13   C     C_R   0.392252 0.060186 0.582586 0.000000
H1    H     H_    0.201667 0.084408 0.568779 0.000000
H2    H     H_    0.293474 0.993854 0.523925 0.000000
H3    H     H_    0.336941 0.103757 0.603473 0.000000
H4    H     H_    0.427950 0.013640 0.556757 0.000000
C14   C     C_R   0.676921 0.045409 0.545077 0.000000
C15   C     C_R   0.740725 0.033033 0.527537 0.000000
C16   C     C_R   0.813783 0.030506 0.553416 0.000000
C17   C     C_R   0.822939 0.041195 0.596705 0.000000
C18   C     C_R   0.759356 0.054257 0.613939 0.000000
C19   C     C_R   0.685602 0.056098 0.588399 0.000000
H5    H     H_    0.732281 0.024908 0.493603 0.000000
H6    H     H_    0.879950 0.039598 0.617337 0.000000
H7    H     H_    0.620456 0.046771 0.523906 0.000000
H8    H     H_    0.767568 0.062223 0.648001 0.000000
C20   C     C_R   0.498323 0.122708 0.718382 0.000000
C21   C     C_R   0.505727 0.138191 0.757731 0.000000
C22   C     C_R   0.581901 0.145198 0.779377 0.000000
C23   C     C_R   0.650867 0.136948 0.760774 0.000000
C24   C     C_R   0.643551 0.121352 0.721502 0.000000
C25   C     C_R   0.567049 0.113852 0.700155 0.000000
H9    H     H_    0.450924 0.144356 0.771683 0.000000
H10   H     H_    0.711051 0.142096 0.777179 0.000000
H11   H     H_    0.437639 0.117230 0.702661 0.000000
H12   H     H_    0.698451 0.114815 0.708207 0.000000
O9    O     O_R   0.525051 0.166175 0.842768 0.000000
O10   O     O_R   0.659152 0.166680 0.844006 0.000000
C26   C     C_R   0.588953 0.160006 0.822676 0.000000
O11   O     O_R   0.480418 0.127812 0.945435 0.000000
O12   O     O_R   0.514001 0.187527 0.963579 0.000000
C27   C     C_R   0.460219 0.149597 0.970706 0.000000
O13   O     O_R   0.697389 0.251959 0.863310 0.000000
O14   O     O_R   0.563121 0.251145 0.862510 0.000000
C28   C     C_R   0.640514 0.275157 0.849144 0.000000
O15   O     O_R   0.695778 0.189126 0.963641 0.000000
O16   O     O_R   0.674308 0.129266 0.945879 0.000000
C29   C     C_R   0.716462 0.151810 0.970715 0.000000
In2   In    In3+3 0.600848 0.183524 0.904308 0.000000
C30   C     C_R   0.003709 0.110570 0.086478 0.000000
C31   C     C_R   0.144808 0.106652 0.088011 0.000000
C32   C     C_R   0.070299 0.094251 0.165978 0.000000
N4    N     N_R   0.075118 0.112631 0.061217 0.000000
N5    N     N_R   0.141750 0.097138 0.140415 0.000000
N6    N     N_R   0.002068 0.101886 0.138605 0.000000
C33   C     C_R   0.909223 0.107500 0.015555 0.000000
C34   C     C_R   0.837594 0.115783 0.989082 0.000000
C35   C     C_R   0.786669 0.137896 0.002639 0.000000
C36   C     C_R   0.806572 0.150259 0.043992 0.000000
C37   C     C_R   0.875702 0.140054 0.072053 0.000000
C38   C     C_R   0.928455 0.119433 0.057396 0.000000
H13   H     H_    0.823689 0.106607 0.956185 0.000000
H14   H     H_    0.767785 0.167834 0.054876 0.000000
H15   H     H_    0.949350 0.091061 0.003739 0.000000
H16   H     H_    0.889853 0.150049 0.104314 0.000000
C39   C     C_R   0.009091 0.094468 0.246664 0.000000
C40   C     C_R   0.001713 0.080013 0.301471 0.000000
C41   C     C_R   0.048109 0.050525 0.334114 0.000000
C42   C     C_R   0.104528 0.037246 0.311273 0.000000
C43   C     C_R   0.114545 0.053238 0.256368 0.000000
C44   C     C_R   0.065592 0.081155 0.223806 0.000000
H17   H     H_    0.956693 0.090353 0.318761 0.000000
H18   H     H_    0.141324 0.014203 0.336254 0.000000
H19   H     H_    0.970352 0.116380 0.221903 0.000000
H20   H     H_    0.158289 0.041916 0.239457 0.000000
C45   C     C_R   0.229264 0.104251 0.016160 0.000000
C46   C     C_R   0.306199 0.113205 0.989000 0.000000
C47   C     C_R   0.379908 0.134120 0.003518 0.000000
C48   C     C_R   0.376239 0.144145 0.046780 0.000000
C49   C     C_R   0.300169 0.133131 0.075504 0.000000
C50   C     C_R   0.225863 0.114087 0.059719 0.000000
H21   H     H_    0.307822 0.105908 0.954616 0.000000
H22   H     H_    0.433133 0.160785 0.058425 0.000000
H23   H     H_    0.171915 0.089350 0.003182 0.000000
H24   H     H_    0.299064 0.141761 0.108897 0.000000
C51   C     C_R   0.772728 0.494293 0.700530 0.000000
N7    N     N_R   0.726404 0.470371 0.748176 0.000000
C52   C     C_R   0.701595 0.492590 0.773944 0.000000
C53   C     C_R   0.723322 0.540213 0.751854 0.000000
C54   C     C_R   0.770869 0.564968 0.703455 0.000000
C55   C     C_R   0.795733 0.541947 0.677557 0.000000
C56   C     C_R   0.698463 0.563264 0.778027 0.000000
C57   C     C_R   0.721253 0.610692 0.755790 0.000000
C58   C     C_R   0.769265 0.635500 0.707231 0.000000
C59   C     C_R   0.793710 0.612491 0.681176 0.000000
C60   C     C_R   0.841371 0.637248 0.632817 0.000000
C61   C     C_R   0.866201 0.614196 0.606636 0.000000
C62   C     C_R   0.843418 0.566764 0.628878 0.000000
C63   C     C_R   0.792942 0.683137 0.684514 0.000000
N8    N     N_R   0.840033 0.707051 0.637148 0.000000
C64   C     C_R   0.864378 0.684852 0.611198 0.000000
O17   O     O_2   0.795314 0.471667 0.674867 0.000000
O18   O     O_2   0.657437 0.468253 0.822000 0.000000
H25   H     H_    0.661106 0.544752 0.816073 0.000000
H26   H     H_    0.701079 0.627804 0.777151 0.000000
O19   O     O_2   0.767631 0.705805 0.709200 0.000000
O20   O     O_2   0.913018 0.709123 0.564759 0.000000
H27   H     H_    0.903639 0.632708 0.568619 0.000000
H28   H     H_    0.863814 0.549646 0.607598 0.000000
C65   C     C_R   0.914611 0.778087 0.641752 0.000000
H29   H     H_    0.934766 0.758088 0.680302 0.000000
C66   C     C_R   0.940220 0.825522 0.619503 0.000000
H30   H     H_    0.979718 0.841909 0.641227 0.000000
C67   C     C_R   0.916463 0.851608 0.569761 0.000000
C68   C     C_R   0.866296 0.829736 0.542720 0.000000
H31   H     H_    0.846984 0.849464 0.503793 0.000000
C69   C     C_R   0.840746 0.782297 0.565008 0.000000
H32   H     H_    0.801386 0.765632 0.543481 0.000000
C70   C     C_R   0.865041 0.756209 0.614540 0.000000
C71   C     C_R   0.620959 0.396790 0.782975 0.000000
H33   H     H_    0.571418 0.414877 0.772508 0.000000
C72   C     C_R   0.600012 0.349272 0.807410 0.000000
H34   H     H_    0.534201 0.330894 0.816074 0.000000
C73   C     C_R   0.662578 0.325611 0.821103 0.000000
C74   C     C_R   0.746258 0.349983 0.809570 0.000000
H35   H     H_    0.796177 0.332188 0.820163 0.000000
C75   C     C_R   0.767114 0.397484 0.785156 0.000000
H36   H     H_    0.832811 0.416105 0.777314 0.000000
C76   C     C_R   0.704616 0.421157 0.771994 0.000000

loop_
_geom_bond_atom_site_label_1
_geom_bond_atom_site_label_2
_geom_bond_distance
_geom_bond_site_symmetry_2
_ccdc_geom_bond_type
O1    In1   2.257 .      S
O2    In1   2.270 1_545  S
C1    C10   1.463 .      S
O3    In1   2.268 1_655  S
O4    In1   2.267 1_655  S
C2    C67   1.468 .      S
O5    In1   2.274 1_545  S
O6    In1   2.265 .      S
C3    C41   1.468 .      S
O7    In1   2.264 1_645  S
O8    In1   2.267 1_645  S
C4    C16   1.466 .      S
In1   O2    2.270 1_565  S
In1   O3    2.268 1_455  S
In1   O4    2.267 1_455  S
In1   O5    2.274 1_565  S
In1   O7    2.264 1_465  S
In1   O8    2.267 1_465  S
C5    C13   1.466 .      S
C6    C25   1.474 .      S
C7    C19   1.469 .      S
C8    H3    1.081 .      S
C9    H1    1.081 .      S
C11   H2    1.081 1_545  S
C12   H4    1.080 .      S
H2    C11   1.081 1_565  S
C14   H7    1.080 .      S
C15   H5    1.081 .      S
C17   H6    1.081 .      S
C18   H8    1.081 .      S
C20   H11   1.080 .      S
C21   H9    1.081 .      S
C22   C26   1.471 .      S
C23   H10   1.081 .      S
C24   H12   1.080 .      S
O9    In2   2.272 .      S
O10   In2   2.269 .      S
O11   In2   2.280 .      S
O12   In2   2.266 .      S
C27   C47   1.471 1_556  S
O13   In2   2.267 .      S
O14   In2   2.269 .      S
C28   C73   1.468 .      S
O15   In2   2.266 .      S
O16   In2   2.277 .      S
C29   C35   1.470 1_556  S
C30   C38   1.472 1_455  S
C31   C50   1.473 .      S
C32   C44   1.469 .      S
C33   H15   1.081 .      S
C34   H13   1.081 .      S
C35   C29   1.470 1_554  S
C36   H14   1.081 .      S
C37   H16   1.081 .      S
C38   C30   1.472 1_655  S
C39   H19   1.081 1_455  S
C40   H17   1.081 1_455  S
C42   H18   1.081 .      S
C43   H20   1.081 .      S
H17   C40   1.081 1_655  S
H19   C39   1.081 1_655  S
C45   H23   1.081 .      S
C46   H21   1.081 .      S
C47   C27   1.471 1_554  S
C48   H22   1.081 .      S
C49   H24   1.081 .      S
C51   O17   1.344 .      S
N7    C76   1.430 .      S
C52   O18   1.344 .      S
C56   H25   1.080 .      S
C57   H26   1.080 .      S
C61   H27   1.080 .      S
C62   H28   1.080 .      S
C63   O19   1.344 .      S
N8    C70   1.430 .      S
C64   O20   1.344 .      S
C65   H29   1.081 .      S
C66   H30   1.081 .      S
C68   H31   1.081 .      S
C69   H32   1.081 .      S
C71   H33   1.081 .      S
C72   H34   1.081 .      S
C74   H35   1.081 .      S
C75   H36   1.081 .      S
O1    C1    1.293 1_565  A
O2    C1    1.293 .      A
C1    O1    1.293 1_545  A
O3    C2    1.293 .      A
O4    C2    1.293 .      A
O5    C3    1.294 .      A
O6    C3    1.292 1_565  A
C3    O6    1.292 1_545  A
O7    C4    1.294 .      A
O8    C4    1.292 .      A
C5    N1    1.346 .      A
C5    N3    1.340 .      A
C6    N1    1.350 .      A
C6    N2    1.351 .      A
C7    N2    1.348 .      A
C7    N3    1.340 .      A
C8    C9    1.383 .      A
C8    C13   1.383 .      A
C9    C10   1.383 .      A
C10   C11   1.378 .      A
C11   C12   1.375 .      A
C12   C13   1.383 .      A
C14   C15   1.376 .      A
C14   C19   1.385 .      A
C15   C16   1.378 .      A
C16   C17   1.384 .      A
C17   C18   1.383 .      A
C18   C19   1.383 .      A
C20   C21   1.382 .      A
C20   C25   1.385 .      A
C21   C22   1.381 .      A
C22   C23   1.382 .      A
C23   C24   1.382 .      A
C24   C25   1.384 .      A
O9    C26   1.294 .      A
O10   C26   1.293 .      A
O11   C27   1.296 .      A
O12   C27   1.293 .      A
O13   C28   1.293 .      A
O14   C28   1.293 .      A
O15   C29   1.293 .      A
O16   C29   1.296 .      A
C30   N4    1.351 .      A
C30   N6    1.347 .      A
C31   N4    1.351 .      A
C31   N5    1.347 .      A
C32   N5    1.346 .      A
C32   N6    1.345 .      A
C33   C34   1.385 1_554  A
C33   C38   1.383 .      A
C34   C33   1.385 1_556  A
C34   C35   1.383 1_556  A
C35   C34   1.383 1_554  A
C35   C36   1.380 .      A
C36   C37   1.381 .      A
C37   C38   1.383 .      A
C39   C40   1.383 .      A
C39   C44   1.383 .      A
C40   C41   1.381 .      A
C41   C42   1.381 .      A
C42   C43   1.381 .      A
C43   C44   1.382 .      A
C45   C46   1.387 1_554  A
C45   C50   1.384 .      A
C46   C45   1.387 1_556  A
C46   C47   1.383 1_556  A
C47   C46   1.383 1_554  A
C47   C48   1.380 .      A
C48   C49   1.381 .      A
C49   C50   1.383 .      A
C51   N7    1.350 .      A
C51   C55   1.385 .      A
N7    C52   1.350 .      A
C52   C53   1.385 .      A
C53   C54   1.376 .      A
C53   C56   1.383 .      A
C54   C55   1.376 .      A
C54   C59   1.382 .      A
C55   C62   1.383 .      A
C56   C57   1.379 .      A
C57   C58   1.383 .      A
C58   C59   1.376 .      A
C58   C63   1.385 .      A
C59   C60   1.376 .      A
C60   C61   1.383 .      A
C60   C64   1.385 .      A
C61   C62   1.379 .      A
C63   N8    1.350 .      A
N8    C64   1.350 .      A
C65   C66   1.380 .      A
C65   C70   1.382 .      A
C66   C67   1.382 .      A
C67   C68   1.382 .      A
C68   C69   1.380 .      A
C69   C70   1.382 .      A
C71   C72   1.381 .      A
C71   C76   1.382 .      A
C72   C73   1.382 .      A
C73   C74   1.382 .      A
C74   C75   1.380 .      A
C75   C76   1.381 .      A
